**************************************************
* OpenRAM generated memory.
* Words: 128
* Data bits: 8
* Banks: 1
* Column mux: 4:1
* Trimmed: False
* LVS: False
**************************************************
* File: DFFPOSX1.pex.netlist
* Created: Wed Jan  2 18:36:24 2008
* Program "Calibre xRC"
* Version "v2007.2_34.24"
*
.subckt dff D Q clk vdd gnd
*
MM21 Q a_66_6# gnd gnd NMOS_VTG L=5e-08 W=5e-07
MM19 a_76_6# a_2_6# a_66_6# gnd NMOS_VTG L=5e-08 W=2.5e-07
MM20 gnd Q a_76_6# gnd NMOS_VTG L=5e-08 W=2.5e-07
MM18 a_66_6# clk a_61_6# gnd NMOS_VTG L=5e-08 W=2.5e-07
MM17 a_61_6# a_34_4# gnd gnd NMOS_VTG L=5e-08 W=2.5e-07
MM10 gnd clk a_2_6# gnd NMOS_VTG L=5e-08 W=5e-07
MM16 a_34_4# a_22_6# gnd gnd NMOS_VTG L=5e-08 W=2.5e-07
MM15 gnd a_34_4# a_31_6# gnd NMOS_VTG L=5e-08 W=2.5e-07
MM14 a_31_6# clk a_22_6# gnd NMOS_VTG L=5e-08 W=2.5e-07
MM13 a_22_6# a_2_6# a_17_6# gnd NMOS_VTG L=5e-08 W=2.5e-07
MM12 a_17_6# D gnd gnd NMOS_VTG L=5e-08 W=2.5e-07
MM11 Q a_66_6# vdd vdd PMOS_VTG L=5e-08 W=1e-06
MM9 vdd Q a_76_84# vdd PMOS_VTG L=5e-08 W=2.5e-07
MM8 a_76_84# clk a_66_6# vdd PMOS_VTG L=5e-08 W=2.5e-07
MM7 a_66_6# a_2_6# a_61_74# vdd PMOS_VTG L=5e-08 W=5e-07
MM6 a_61_74# a_34_4# vdd vdd PMOS_VTG L=5e-08 W=5e-07
MM0 vdd clk a_2_6# vdd PMOS_VTG L=5e-08 W=1e-06
MM5 a_34_4# a_22_6# vdd vdd PMOS_VTG L=5e-08 W=5e-07
MM4 vdd a_34_4# a_31_74# vdd PMOS_VTG L=5e-08 W=5e-07
MM3 a_31_74# a_2_6# a_22_6# vdd PMOS_VTG L=5e-08 W=5e-07
MM2 a_22_6# clk a_17_74# vdd PMOS_VTG L=5e-08 W=5e-07
MM1 a_17_74# D vdd vdd PMOS_VTG L=5e-08 W=5e-07
* c_9 a_66_6# 0 0.271997f
* c_20 clk 0 0.350944f
* c_27 Q 0 0.202617f
* c_32 a_76_84# 0 0.0210573f
* c_38 a_76_6# 0 0.0204911f
* c_45 a_34_4# 0 0.172306f
* c_55 a_2_6# 0 0.283119f
* c_59 a_22_6# 0 0.157312f
* c_64 D 0 0.0816386f
* c_73 gnd 0 0.254131f
* c_81 vdd 0 0.23624f
*
*.include "dff.pex.netlist.dff.pxi"
*
.ends
*
*

.SUBCKT row_addr_dff din_0 din_1 din_2 din_3 din_4 dout_0 dout_1 dout_2 dout_3 dout_4 clk vdd gnd
*.PININFO din_0:I din_1:I din_2:I din_3:I din_4:I dout_0:O dout_1:O dout_2:O dout_3:O dout_4:O clk:I vdd:B gnd:B
* INPUT : din_0 
* INPUT : din_1 
* INPUT : din_2 
* INPUT : din_3 
* INPUT : din_4 
* OUTPUT: dout_0 
* OUTPUT: dout_1 
* OUTPUT: dout_2 
* OUTPUT: dout_3 
* OUTPUT: dout_4 
* INPUT : clk 
* POWER : vdd 
* GROUND: gnd 
* rows: 5 cols: 1
Xdff_r0_c0 din_0 dout_0 clk vdd gnd dff
Xdff_r1_c0 din_1 dout_1 clk vdd gnd dff
Xdff_r2_c0 din_2 dout_2 clk vdd gnd dff
Xdff_r3_c0 din_3 dout_3 clk vdd gnd dff
Xdff_r4_c0 din_4 dout_4 clk vdd gnd dff
.ENDS row_addr_dff

.SUBCKT col_addr_dff din_0 din_1 dout_0 dout_1 clk vdd gnd
*.PININFO din_0:I din_1:I dout_0:O dout_1:O clk:I vdd:B gnd:B
* INPUT : din_0 
* INPUT : din_1 
* OUTPUT: dout_0 
* OUTPUT: dout_1 
* INPUT : clk 
* POWER : vdd 
* GROUND: gnd 
* rows: 1 cols: 2
Xdff_r0_c0 din_0 dout_0 clk vdd gnd dff
Xdff_r0_c1 din_1 dout_1 clk vdd gnd dff
.ENDS col_addr_dff

.SUBCKT data_dff din_0 din_1 din_2 din_3 din_4 din_5 din_6 din_7 dout_0 dout_1 dout_2 dout_3 dout_4 dout_5 dout_6 dout_7 clk vdd gnd
*.PININFO din_0:I din_1:I din_2:I din_3:I din_4:I din_5:I din_6:I din_7:I dout_0:O dout_1:O dout_2:O dout_3:O dout_4:O dout_5:O dout_6:O dout_7:O clk:I vdd:B gnd:B
* INPUT : din_0 
* INPUT : din_1 
* INPUT : din_2 
* INPUT : din_3 
* INPUT : din_4 
* INPUT : din_5 
* INPUT : din_6 
* INPUT : din_7 
* OUTPUT: dout_0 
* OUTPUT: dout_1 
* OUTPUT: dout_2 
* OUTPUT: dout_3 
* OUTPUT: dout_4 
* OUTPUT: dout_5 
* OUTPUT: dout_6 
* OUTPUT: dout_7 
* INPUT : clk 
* POWER : vdd 
* GROUND: gnd 
* rows: 1 cols: 8
Xdff_r0_c0 din_0 dout_0 clk vdd gnd dff
Xdff_r0_c1 din_1 dout_1 clk vdd gnd dff
Xdff_r0_c2 din_2 dout_2 clk vdd gnd dff
Xdff_r0_c3 din_3 dout_3 clk vdd gnd dff
Xdff_r0_c4 din_4 dout_4 clk vdd gnd dff
Xdff_r0_c5 din_5 dout_5 clk vdd gnd dff
Xdff_r0_c6 din_6 dout_6 clk vdd gnd dff
Xdff_r0_c7 din_7 dout_7 clk vdd gnd dff
.ENDS data_dff

* spice ptx M{0} {1} nmos_vtg m=1 w=0.18u l=0.05u pd=0.46u ps=0.46u as=0.02p ad=0.02p

* spice ptx M{0} {1} nmos_vtg m=1 w=0.18u l=0.05u pd=0.46u ps=0.46u as=0.02p ad=0.02p

* spice ptx M{0} {1} pmos_vtg m=1 w=0.27u l=0.05u pd=0.64u ps=0.64u as=0.03p ad=0.03p

.SUBCKT pnand2 A B Z vdd gnd
*.PININFO A:I B:I Z:O vdd:B gnd:B
* INPUT : A 
* INPUT : B 
* OUTPUT: Z 
* POWER : vdd 
* GROUND: gnd 
Mpnand2_pmos1 vdd A Z vdd pmos_vtg m=1 w=0.27u l=0.05u pd=0.64u ps=0.64u as=0.03p ad=0.03p
Mpnand2_pmos2 Z B vdd vdd pmos_vtg m=1 w=0.27u l=0.05u pd=0.64u ps=0.64u as=0.03p ad=0.03p
Mpnand2_nmos1 Z B net1 gnd nmos_vtg m=1 w=0.18u l=0.05u pd=0.46u ps=0.46u as=0.02p ad=0.02p
Mpnand2_nmos2 net1 A gnd gnd nmos_vtg m=1 w=0.18u l=0.05u pd=0.46u ps=0.46u as=0.02p ad=0.02p
.ENDS pnand2

* spice ptx M{0} {1} nmos_vtg m=1 w=0.09u l=0.05u pd=0.28u ps=0.28u as=0.01p ad=0.01p

* spice ptx M{0} {1} pmos_vtg m=1 w=0.27u l=0.05u pd=0.64u ps=0.64u as=0.03p ad=0.03p

.SUBCKT pinv A Z vdd gnd
*.PININFO A:I Z:O vdd:B gnd:B
* INPUT : A 
* OUTPUT: Z 
* POWER : vdd 
* GROUND: gnd 
Mpinv_pmos Z A vdd vdd pmos_vtg m=1 w=0.27u l=0.05u pd=0.64u ps=0.64u as=0.03p ad=0.03p
Mpinv_nmos Z A gnd gnd nmos_vtg m=1 w=0.09u l=0.05u pd=0.28u ps=0.28u as=0.01p ad=0.01p
.ENDS pinv

.SUBCKT and2_dec A B Z vdd gnd
*.PININFO A:I B:I Z:O vdd:B gnd:B
* INPUT : A 
* INPUT : B 
* OUTPUT: Z 
* POWER : vdd 
* GROUND: gnd 
* size: 1
Xpand2_dec_nand A B zb_int vdd gnd pnand2
Xpand2_dec_inv zb_int Z vdd gnd pinv
.ENDS and2_dec

* spice ptx M{0} {1} nmos_vtg m=1 w=0.18u l=0.05u pd=0.46u ps=0.46u as=0.02p ad=0.02p

.SUBCKT pnand3 A B C Z vdd gnd
*.PININFO A:I B:I C:I Z:O vdd:B gnd:B
* INPUT : A 
* INPUT : B 
* INPUT : C 
* OUTPUT: Z 
* POWER : vdd 
* GROUND: gnd 
Mpnand3_pmos1 vdd A Z vdd pmos_vtg m=1 w=0.27u l=0.05u pd=0.64u ps=0.64u as=0.03p ad=0.03p
Mpnand3_pmos2 Z B vdd vdd pmos_vtg m=1 w=0.27u l=0.05u pd=0.64u ps=0.64u as=0.03p ad=0.03p
Mpnand3_pmos3 Z C vdd vdd pmos_vtg m=1 w=0.27u l=0.05u pd=0.64u ps=0.64u as=0.03p ad=0.03p
Mpnand3_nmos1 Z C net1 gnd nmos_vtg m=1 w=0.18u l=0.05u pd=0.46u ps=0.46u as=0.02p ad=0.02p
Mpnand3_nmos2 net1 B net2 gnd nmos_vtg m=1 w=0.18u l=0.05u pd=0.46u ps=0.46u as=0.02p ad=0.02p
Mpnand3_nmos3 net2 A gnd gnd nmos_vtg m=1 w=0.18u l=0.05u pd=0.46u ps=0.46u as=0.02p ad=0.02p
.ENDS pnand3

.SUBCKT and3_dec A B C Z vdd gnd
*.PININFO A:I B:I C:I Z:O vdd:B gnd:B
* INPUT : A 
* INPUT : B 
* INPUT : C 
* OUTPUT: Z 
* POWER : vdd 
* GROUND: gnd 
* size: 1
Xpand3_dec_nand A B C zb_int vdd gnd pnand3
Xpand3_dec_inv zb_int Z vdd gnd pinv
.ENDS and3_dec

.SUBCKT hierarchical_predecode2x4 in_0 in_1 out_0 out_1 out_2 out_3 vdd gnd
*.PININFO in_0:I in_1:I out_0:O out_1:O out_2:O out_3:O vdd:B gnd:B
* INPUT : in_0 
* INPUT : in_1 
* OUTPUT: out_0 
* OUTPUT: out_1 
* OUTPUT: out_2 
* OUTPUT: out_3 
* POWER : vdd 
* GROUND: gnd 
Xpre_inv_0 in_0 inbar_0 vdd gnd pinv
Xpre_inv_1 in_1 inbar_1 vdd gnd pinv
XXpre2x4_and_0 inbar_0 inbar_1 out_0 vdd gnd and2_dec
XXpre2x4_and_1 in_0 inbar_1 out_1 vdd gnd and2_dec
XXpre2x4_and_2 inbar_0 in_1 out_2 vdd gnd and2_dec
XXpre2x4_and_3 in_0 in_1 out_3 vdd gnd and2_dec
.ENDS hierarchical_predecode2x4

.SUBCKT hierarchical_predecode3x8 in_0 in_1 in_2 out_0 out_1 out_2 out_3 out_4 out_5 out_6 out_7 vdd gnd
*.PININFO in_0:I in_1:I in_2:I out_0:O out_1:O out_2:O out_3:O out_4:O out_5:O out_6:O out_7:O vdd:B gnd:B
* INPUT : in_0 
* INPUT : in_1 
* INPUT : in_2 
* OUTPUT: out_0 
* OUTPUT: out_1 
* OUTPUT: out_2 
* OUTPUT: out_3 
* OUTPUT: out_4 
* OUTPUT: out_5 
* OUTPUT: out_6 
* OUTPUT: out_7 
* POWER : vdd 
* GROUND: gnd 
Xpre_inv_0 in_0 inbar_0 vdd gnd pinv
Xpre_inv_1 in_1 inbar_1 vdd gnd pinv
Xpre_inv_2 in_2 inbar_2 vdd gnd pinv
XXpre3x8_and_0 inbar_0 inbar_1 inbar_2 out_0 vdd gnd and3_dec
XXpre3x8_and_1 in_0 inbar_1 inbar_2 out_1 vdd gnd and3_dec
XXpre3x8_and_2 inbar_0 in_1 inbar_2 out_2 vdd gnd and3_dec
XXpre3x8_and_3 in_0 in_1 inbar_2 out_3 vdd gnd and3_dec
XXpre3x8_and_4 inbar_0 inbar_1 in_2 out_4 vdd gnd and3_dec
XXpre3x8_and_5 in_0 inbar_1 in_2 out_5 vdd gnd and3_dec
XXpre3x8_and_6 inbar_0 in_1 in_2 out_6 vdd gnd and3_dec
XXpre3x8_and_7 in_0 in_1 in_2 out_7 vdd gnd and3_dec
.ENDS hierarchical_predecode3x8

.SUBCKT pnand4 A B C D Z vdd gnd
*.PININFO A:I B:I C:I D:I Z:O vdd:B gnd:B
* INPUT : A 
* INPUT : B 
* INPUT : C 
* INPUT : D 
* OUTPUT: Z 
* POWER : vdd 
* GROUND: gnd 
Mpnand4_pmos1 vdd A Z vdd pmos_vtg m=1 w=0.27u l=0.05u pd=0.64u ps=0.64u as=0.03p ad=0.03p
Mpnand4_pmos2 Z B vdd vdd pmos_vtg m=1 w=0.27u l=0.05u pd=0.64u ps=0.64u as=0.03p ad=0.03p
Mpnand4_pmos3 Z C vdd vdd pmos_vtg m=1 w=0.27u l=0.05u pd=0.64u ps=0.64u as=0.03p ad=0.03p
Mpnand4_pmos4 Z D vdd vdd pmos_vtg m=1 w=0.27u l=0.05u pd=0.64u ps=0.64u as=0.03p ad=0.03p
Mpnand4_nmos1 Z D net1 gnd nmos_vtg m=1 w=0.18u l=0.05u pd=0.46u ps=0.46u as=0.02p ad=0.02p
Mpnand4_nmos2 net1 C net2 gnd nmos_vtg m=1 w=0.18u l=0.05u pd=0.46u ps=0.46u as=0.02p ad=0.02p
Mpnand4_nmos3 net2 B net3 gnd nmos_vtg m=1 w=0.18u l=0.05u pd=0.46u ps=0.46u as=0.02p ad=0.02p
Mpnand4_nmos4 net3 A gnd gnd nmos_vtg m=1 w=0.18u l=0.05u pd=0.46u ps=0.46u as=0.02p ad=0.02p
.ENDS pnand4

.SUBCKT and4_dec A B C D Z vdd gnd
*.PININFO A:I B:I C:I D:I Z:O vdd:B gnd:B
* INPUT : A 
* INPUT : B 
* INPUT : C 
* INPUT : D 
* OUTPUT: Z 
* POWER : vdd 
* GROUND: gnd 
* size: 1
Xpand4_dec_nand A B C D zb_int vdd gnd pnand4
Xpand4_dec_inv zb_int Z vdd gnd pinv
.ENDS and4_dec

.SUBCKT hierarchical_predecode4x16 in_0 in_1 in_2 in_3 out_0 out_1 out_2 out_3 out_4 out_5 out_6 out_7 out_8 out_9 out_10 out_11 out_12 out_13 out_14 out_15 vdd gnd
*.PININFO in_0:I in_1:I in_2:I in_3:I out_0:O out_1:O out_2:O out_3:O out_4:O out_5:O out_6:O out_7:O out_8:O out_9:O out_10:O out_11:O out_12:O out_13:O out_14:O out_15:O vdd:B gnd:B
* INPUT : in_0 
* INPUT : in_1 
* INPUT : in_2 
* INPUT : in_3 
* OUTPUT: out_0 
* OUTPUT: out_1 
* OUTPUT: out_2 
* OUTPUT: out_3 
* OUTPUT: out_4 
* OUTPUT: out_5 
* OUTPUT: out_6 
* OUTPUT: out_7 
* OUTPUT: out_8 
* OUTPUT: out_9 
* OUTPUT: out_10 
* OUTPUT: out_11 
* OUTPUT: out_12 
* OUTPUT: out_13 
* OUTPUT: out_14 
* OUTPUT: out_15 
* POWER : vdd 
* GROUND: gnd 
Xpre_inv_0 in_0 inbar_0 vdd gnd pinv
Xpre_inv_1 in_1 inbar_1 vdd gnd pinv
Xpre_inv_2 in_2 inbar_2 vdd gnd pinv
Xpre_inv_3 in_3 inbar_3 vdd gnd pinv
XXpre4x16_and_0 inbar_0 inbar_1 inbar_2 inbar_3 out_0 vdd gnd and4_dec
XXpre4x16_and_1 in_0 inbar_1 inbar_2 inbar_3 out_1 vdd gnd and4_dec
XXpre4x16_and_2 inbar_0 in_1 inbar_2 inbar_3 out_2 vdd gnd and4_dec
XXpre4x16_and_3 in_0 in_1 inbar_2 inbar_3 out_3 vdd gnd and4_dec
XXpre4x16_and_4 inbar_0 inbar_1 in_2 inbar_3 out_4 vdd gnd and4_dec
XXpre4x16_and_5 in_0 inbar_1 in_2 inbar_3 out_5 vdd gnd and4_dec
XXpre4x16_and_6 inbar_0 in_1 in_2 inbar_3 out_6 vdd gnd and4_dec
XXpre4x16_and_7 in_0 in_1 in_2 inbar_3 out_7 vdd gnd and4_dec
XXpre4x16_and_8 inbar_0 inbar_1 inbar_2 in_3 out_8 vdd gnd and4_dec
XXpre4x16_and_9 in_0 inbar_1 inbar_2 in_3 out_9 vdd gnd and4_dec
XXpre4x16_and_10 inbar_0 in_1 inbar_2 in_3 out_10 vdd gnd and4_dec
XXpre4x16_and_11 in_0 in_1 inbar_2 in_3 out_11 vdd gnd and4_dec
XXpre4x16_and_12 inbar_0 inbar_1 in_2 in_3 out_12 vdd gnd and4_dec
XXpre4x16_and_13 in_0 inbar_1 in_2 in_3 out_13 vdd gnd and4_dec
XXpre4x16_and_14 inbar_0 in_1 in_2 in_3 out_14 vdd gnd and4_dec
XXpre4x16_and_15 in_0 in_1 in_2 in_3 out_15 vdd gnd and4_dec
.ENDS hierarchical_predecode4x16

.SUBCKT hierarchical_decoder addr_0 addr_1 addr_2 addr_3 addr_4 decode_0 decode_1 decode_2 decode_3 decode_4 decode_5 decode_6 decode_7 decode_8 decode_9 decode_10 decode_11 decode_12 decode_13 decode_14 decode_15 decode_16 decode_17 decode_18 decode_19 decode_20 decode_21 decode_22 decode_23 decode_24 decode_25 decode_26 decode_27 decode_28 decode_29 decode_30 decode_31 vdd gnd
*.PININFO addr_0:I addr_1:I addr_2:I addr_3:I addr_4:I decode_0:O decode_1:O decode_2:O decode_3:O decode_4:O decode_5:O decode_6:O decode_7:O decode_8:O decode_9:O decode_10:O decode_11:O decode_12:O decode_13:O decode_14:O decode_15:O decode_16:O decode_17:O decode_18:O decode_19:O decode_20:O decode_21:O decode_22:O decode_23:O decode_24:O decode_25:O decode_26:O decode_27:O decode_28:O decode_29:O decode_30:O decode_31:O vdd:B gnd:B
* INPUT : addr_0 
* INPUT : addr_1 
* INPUT : addr_2 
* INPUT : addr_3 
* INPUT : addr_4 
* OUTPUT: decode_0 
* OUTPUT: decode_1 
* OUTPUT: decode_2 
* OUTPUT: decode_3 
* OUTPUT: decode_4 
* OUTPUT: decode_5 
* OUTPUT: decode_6 
* OUTPUT: decode_7 
* OUTPUT: decode_8 
* OUTPUT: decode_9 
* OUTPUT: decode_10 
* OUTPUT: decode_11 
* OUTPUT: decode_12 
* OUTPUT: decode_13 
* OUTPUT: decode_14 
* OUTPUT: decode_15 
* OUTPUT: decode_16 
* OUTPUT: decode_17 
* OUTPUT: decode_18 
* OUTPUT: decode_19 
* OUTPUT: decode_20 
* OUTPUT: decode_21 
* OUTPUT: decode_22 
* OUTPUT: decode_23 
* OUTPUT: decode_24 
* OUTPUT: decode_25 
* OUTPUT: decode_26 
* OUTPUT: decode_27 
* OUTPUT: decode_28 
* OUTPUT: decode_29 
* OUTPUT: decode_30 
* OUTPUT: decode_31 
* POWER : vdd 
* GROUND: gnd 
Xpre_0 addr_0 addr_1 out_0 out_1 out_2 out_3 vdd gnd hierarchical_predecode2x4
Xpre3x8_0 addr_2 addr_3 addr_4 out_4 out_5 out_6 out_7 out_8 out_9 out_10 out_11 vdd gnd hierarchical_predecode3x8
XDEC_AND_0 out_0 out_4 decode_0 vdd gnd and2_dec
XDEC_AND_4 out_0 out_5 decode_4 vdd gnd and2_dec
XDEC_AND_8 out_0 out_6 decode_8 vdd gnd and2_dec
XDEC_AND_12 out_0 out_7 decode_12 vdd gnd and2_dec
XDEC_AND_16 out_0 out_8 decode_16 vdd gnd and2_dec
XDEC_AND_20 out_0 out_9 decode_20 vdd gnd and2_dec
XDEC_AND_24 out_0 out_10 decode_24 vdd gnd and2_dec
XDEC_AND_28 out_0 out_11 decode_28 vdd gnd and2_dec
XDEC_AND_1 out_1 out_4 decode_1 vdd gnd and2_dec
XDEC_AND_5 out_1 out_5 decode_5 vdd gnd and2_dec
XDEC_AND_9 out_1 out_6 decode_9 vdd gnd and2_dec
XDEC_AND_13 out_1 out_7 decode_13 vdd gnd and2_dec
XDEC_AND_17 out_1 out_8 decode_17 vdd gnd and2_dec
XDEC_AND_21 out_1 out_9 decode_21 vdd gnd and2_dec
XDEC_AND_25 out_1 out_10 decode_25 vdd gnd and2_dec
XDEC_AND_29 out_1 out_11 decode_29 vdd gnd and2_dec
XDEC_AND_2 out_2 out_4 decode_2 vdd gnd and2_dec
XDEC_AND_6 out_2 out_5 decode_6 vdd gnd and2_dec
XDEC_AND_10 out_2 out_6 decode_10 vdd gnd and2_dec
XDEC_AND_14 out_2 out_7 decode_14 vdd gnd and2_dec
XDEC_AND_18 out_2 out_8 decode_18 vdd gnd and2_dec
XDEC_AND_22 out_2 out_9 decode_22 vdd gnd and2_dec
XDEC_AND_26 out_2 out_10 decode_26 vdd gnd and2_dec
XDEC_AND_30 out_2 out_11 decode_30 vdd gnd and2_dec
XDEC_AND_3 out_3 out_4 decode_3 vdd gnd and2_dec
XDEC_AND_7 out_3 out_5 decode_7 vdd gnd and2_dec
XDEC_AND_11 out_3 out_6 decode_11 vdd gnd and2_dec
XDEC_AND_15 out_3 out_7 decode_15 vdd gnd and2_dec
XDEC_AND_19 out_3 out_8 decode_19 vdd gnd and2_dec
XDEC_AND_23 out_3 out_9 decode_23 vdd gnd and2_dec
XDEC_AND_27 out_3 out_10 decode_27 vdd gnd and2_dec
XDEC_AND_31 out_3 out_11 decode_31 vdd gnd and2_dec
.ENDS hierarchical_decoder

* spice ptx M{0} {1} nmos_vtg m=7 w=0.10250000000000001u l=0.05u pd=0.31u ps=0.31u as=0.01p ad=0.01p

* spice ptx M{0} {1} pmos_vtg m=7 w=0.3075u l=0.05u pd=0.71u ps=0.71u as=0.04p ad=0.04p

.SUBCKT pinv_0 A Z vdd gnd
*.PININFO A:I Z:O vdd:B gnd:B
* INPUT : A 
* OUTPUT: Z 
* POWER : vdd 
* GROUND: gnd 
Mpinv_pmos Z A vdd vdd pmos_vtg m=7 w=0.3075u l=0.05u pd=0.71u ps=0.71u as=0.04p ad=0.04p
Mpinv_nmos Z A gnd gnd nmos_vtg m=7 w=0.10250000000000001u l=0.05u pd=0.31u ps=0.31u as=0.01p ad=0.01p
.ENDS pinv_0

.SUBCKT wordline_driver A B Z vdd gnd
*.PININFO A:I B:I Z:O vdd:B gnd:B
* INPUT : A 
* INPUT : B 
* OUTPUT: Z 
* POWER : vdd 
* GROUND: gnd 
Xwld_nand A B zb_int vdd gnd pnand2
Xwl_driver zb_int Z vdd gnd pinv_0
.ENDS wordline_driver

.SUBCKT wordline_driver_array in_0 in_1 in_2 in_3 in_4 in_5 in_6 in_7 in_8 in_9 in_10 in_11 in_12 in_13 in_14 in_15 in_16 in_17 in_18 in_19 in_20 in_21 in_22 in_23 in_24 in_25 in_26 in_27 in_28 in_29 in_30 in_31 wl_0 wl_1 wl_2 wl_3 wl_4 wl_5 wl_6 wl_7 wl_8 wl_9 wl_10 wl_11 wl_12 wl_13 wl_14 wl_15 wl_16 wl_17 wl_18 wl_19 wl_20 wl_21 wl_22 wl_23 wl_24 wl_25 wl_26 wl_27 wl_28 wl_29 wl_30 wl_31 en vdd gnd
*.PININFO in_0:I in_1:I in_2:I in_3:I in_4:I in_5:I in_6:I in_7:I in_8:I in_9:I in_10:I in_11:I in_12:I in_13:I in_14:I in_15:I in_16:I in_17:I in_18:I in_19:I in_20:I in_21:I in_22:I in_23:I in_24:I in_25:I in_26:I in_27:I in_28:I in_29:I in_30:I in_31:I wl_0:O wl_1:O wl_2:O wl_3:O wl_4:O wl_5:O wl_6:O wl_7:O wl_8:O wl_9:O wl_10:O wl_11:O wl_12:O wl_13:O wl_14:O wl_15:O wl_16:O wl_17:O wl_18:O wl_19:O wl_20:O wl_21:O wl_22:O wl_23:O wl_24:O wl_25:O wl_26:O wl_27:O wl_28:O wl_29:O wl_30:O wl_31:O en:I vdd:B gnd:B
* INPUT : in_0 
* INPUT : in_1 
* INPUT : in_2 
* INPUT : in_3 
* INPUT : in_4 
* INPUT : in_5 
* INPUT : in_6 
* INPUT : in_7 
* INPUT : in_8 
* INPUT : in_9 
* INPUT : in_10 
* INPUT : in_11 
* INPUT : in_12 
* INPUT : in_13 
* INPUT : in_14 
* INPUT : in_15 
* INPUT : in_16 
* INPUT : in_17 
* INPUT : in_18 
* INPUT : in_19 
* INPUT : in_20 
* INPUT : in_21 
* INPUT : in_22 
* INPUT : in_23 
* INPUT : in_24 
* INPUT : in_25 
* INPUT : in_26 
* INPUT : in_27 
* INPUT : in_28 
* INPUT : in_29 
* INPUT : in_30 
* INPUT : in_31 
* OUTPUT: wl_0 
* OUTPUT: wl_1 
* OUTPUT: wl_2 
* OUTPUT: wl_3 
* OUTPUT: wl_4 
* OUTPUT: wl_5 
* OUTPUT: wl_6 
* OUTPUT: wl_7 
* OUTPUT: wl_8 
* OUTPUT: wl_9 
* OUTPUT: wl_10 
* OUTPUT: wl_11 
* OUTPUT: wl_12 
* OUTPUT: wl_13 
* OUTPUT: wl_14 
* OUTPUT: wl_15 
* OUTPUT: wl_16 
* OUTPUT: wl_17 
* OUTPUT: wl_18 
* OUTPUT: wl_19 
* OUTPUT: wl_20 
* OUTPUT: wl_21 
* OUTPUT: wl_22 
* OUTPUT: wl_23 
* OUTPUT: wl_24 
* OUTPUT: wl_25 
* OUTPUT: wl_26 
* OUTPUT: wl_27 
* OUTPUT: wl_28 
* OUTPUT: wl_29 
* OUTPUT: wl_30 
* OUTPUT: wl_31 
* INPUT : en 
* POWER : vdd 
* GROUND: gnd 
* rows: 32 cols: 32
Xwl_driver_and0 in_0 en wl_0 vdd gnd wordline_driver
Xwl_driver_and1 in_1 en wl_1 vdd gnd wordline_driver
Xwl_driver_and2 in_2 en wl_2 vdd gnd wordline_driver
Xwl_driver_and3 in_3 en wl_3 vdd gnd wordline_driver
Xwl_driver_and4 in_4 en wl_4 vdd gnd wordline_driver
Xwl_driver_and5 in_5 en wl_5 vdd gnd wordline_driver
Xwl_driver_and6 in_6 en wl_6 vdd gnd wordline_driver
Xwl_driver_and7 in_7 en wl_7 vdd gnd wordline_driver
Xwl_driver_and8 in_8 en wl_8 vdd gnd wordline_driver
Xwl_driver_and9 in_9 en wl_9 vdd gnd wordline_driver
Xwl_driver_and10 in_10 en wl_10 vdd gnd wordline_driver
Xwl_driver_and11 in_11 en wl_11 vdd gnd wordline_driver
Xwl_driver_and12 in_12 en wl_12 vdd gnd wordline_driver
Xwl_driver_and13 in_13 en wl_13 vdd gnd wordline_driver
Xwl_driver_and14 in_14 en wl_14 vdd gnd wordline_driver
Xwl_driver_and15 in_15 en wl_15 vdd gnd wordline_driver
Xwl_driver_and16 in_16 en wl_16 vdd gnd wordline_driver
Xwl_driver_and17 in_17 en wl_17 vdd gnd wordline_driver
Xwl_driver_and18 in_18 en wl_18 vdd gnd wordline_driver
Xwl_driver_and19 in_19 en wl_19 vdd gnd wordline_driver
Xwl_driver_and20 in_20 en wl_20 vdd gnd wordline_driver
Xwl_driver_and21 in_21 en wl_21 vdd gnd wordline_driver
Xwl_driver_and22 in_22 en wl_22 vdd gnd wordline_driver
Xwl_driver_and23 in_23 en wl_23 vdd gnd wordline_driver
Xwl_driver_and24 in_24 en wl_24 vdd gnd wordline_driver
Xwl_driver_and25 in_25 en wl_25 vdd gnd wordline_driver
Xwl_driver_and26 in_26 en wl_26 vdd gnd wordline_driver
Xwl_driver_and27 in_27 en wl_27 vdd gnd wordline_driver
Xwl_driver_and28 in_28 en wl_28 vdd gnd wordline_driver
Xwl_driver_and29 in_29 en wl_29 vdd gnd wordline_driver
Xwl_driver_and30 in_30 en wl_30 vdd gnd wordline_driver
Xwl_driver_and31 in_31 en wl_31 vdd gnd wordline_driver
.ENDS wordline_driver_array

.SUBCKT and2_dec_0 A B Z vdd gnd
*.PININFO A:I B:I Z:O vdd:B gnd:B
* INPUT : A 
* INPUT : B 
* OUTPUT: Z 
* POWER : vdd 
* GROUND: gnd 
* size: 8
Xpand2_dec_nand A B zb_int vdd gnd pnand2
Xpand2_dec_inv zb_int Z vdd gnd pinv_0
.ENDS and2_dec_0

.SUBCKT port_address addr_0 addr_1 addr_2 addr_3 addr_4 wl_en wl_0 wl_1 wl_2 wl_3 wl_4 wl_5 wl_6 wl_7 wl_8 wl_9 wl_10 wl_11 wl_12 wl_13 wl_14 wl_15 wl_16 wl_17 wl_18 wl_19 wl_20 wl_21 wl_22 wl_23 wl_24 wl_25 wl_26 wl_27 wl_28 wl_29 wl_30 wl_31 rbl_wl vdd gnd
*.PININFO addr_0:I addr_1:I addr_2:I addr_3:I addr_4:I wl_en:I wl_0:O wl_1:O wl_2:O wl_3:O wl_4:O wl_5:O wl_6:O wl_7:O wl_8:O wl_9:O wl_10:O wl_11:O wl_12:O wl_13:O wl_14:O wl_15:O wl_16:O wl_17:O wl_18:O wl_19:O wl_20:O wl_21:O wl_22:O wl_23:O wl_24:O wl_25:O wl_26:O wl_27:O wl_28:O wl_29:O wl_30:O wl_31:O rbl_wl:O vdd:B gnd:B
* INPUT : addr_0 
* INPUT : addr_1 
* INPUT : addr_2 
* INPUT : addr_3 
* INPUT : addr_4 
* INPUT : wl_en 
* OUTPUT: wl_0 
* OUTPUT: wl_1 
* OUTPUT: wl_2 
* OUTPUT: wl_3 
* OUTPUT: wl_4 
* OUTPUT: wl_5 
* OUTPUT: wl_6 
* OUTPUT: wl_7 
* OUTPUT: wl_8 
* OUTPUT: wl_9 
* OUTPUT: wl_10 
* OUTPUT: wl_11 
* OUTPUT: wl_12 
* OUTPUT: wl_13 
* OUTPUT: wl_14 
* OUTPUT: wl_15 
* OUTPUT: wl_16 
* OUTPUT: wl_17 
* OUTPUT: wl_18 
* OUTPUT: wl_19 
* OUTPUT: wl_20 
* OUTPUT: wl_21 
* OUTPUT: wl_22 
* OUTPUT: wl_23 
* OUTPUT: wl_24 
* OUTPUT: wl_25 
* OUTPUT: wl_26 
* OUTPUT: wl_27 
* OUTPUT: wl_28 
* OUTPUT: wl_29 
* OUTPUT: wl_30 
* OUTPUT: wl_31 
* OUTPUT: rbl_wl 
* POWER : vdd 
* GROUND: gnd 
Xrow_decoder addr_0 addr_1 addr_2 addr_3 addr_4 dec_out_0 dec_out_1 dec_out_2 dec_out_3 dec_out_4 dec_out_5 dec_out_6 dec_out_7 dec_out_8 dec_out_9 dec_out_10 dec_out_11 dec_out_12 dec_out_13 dec_out_14 dec_out_15 dec_out_16 dec_out_17 dec_out_18 dec_out_19 dec_out_20 dec_out_21 dec_out_22 dec_out_23 dec_out_24 dec_out_25 dec_out_26 dec_out_27 dec_out_28 dec_out_29 dec_out_30 dec_out_31 vdd gnd hierarchical_decoder
Xwordline_driver dec_out_0 dec_out_1 dec_out_2 dec_out_3 dec_out_4 dec_out_5 dec_out_6 dec_out_7 dec_out_8 dec_out_9 dec_out_10 dec_out_11 dec_out_12 dec_out_13 dec_out_14 dec_out_15 dec_out_16 dec_out_17 dec_out_18 dec_out_19 dec_out_20 dec_out_21 dec_out_22 dec_out_23 dec_out_24 dec_out_25 dec_out_26 dec_out_27 dec_out_28 dec_out_29 dec_out_30 dec_out_31 wl_0 wl_1 wl_2 wl_3 wl_4 wl_5 wl_6 wl_7 wl_8 wl_9 wl_10 wl_11 wl_12 wl_13 wl_14 wl_15 wl_16 wl_17 wl_18 wl_19 wl_20 wl_21 wl_22 wl_23 wl_24 wl_25 wl_26 wl_27 wl_28 wl_29 wl_30 wl_31 wl_en vdd gnd wordline_driver_array
Xrbl_driver wl_en vdd rbl_wl vdd gnd and2_dec_0
.ENDS port_address

.SUBCKT cell_1rw bl br wl vdd gnd
* Inverter 1
MM0 Q_bar Q gnd gnd NMOS_VTG W=205.00n L=50n
MM4 Q_bar Q vdd vdd PMOS_VTG W=90n L=50n

* Inverer 2
MM1 Q Q_bar gnd gnd NMOS_VTG W=205.00n L=50n
MM5 Q Q_bar vdd vdd PMOS_VTG W=90n L=50n

* Access transistors
MM3 bl wl Q gnd NMOS_VTG W=135.00n L=50n
MM2 br wl Q_bar gnd NMOS_VTG W=135.00n L=50n
.ENDS cell_1rw


.SUBCKT bitcell_array bl_0_0 br_0_0 bl_0_1 br_0_1 bl_0_2 br_0_2 bl_0_3 br_0_3 bl_0_4 br_0_4 bl_0_5 br_0_5 bl_0_6 br_0_6 bl_0_7 br_0_7 bl_0_8 br_0_8 bl_0_9 br_0_9 bl_0_10 br_0_10 bl_0_11 br_0_11 bl_0_12 br_0_12 bl_0_13 br_0_13 bl_0_14 br_0_14 bl_0_15 br_0_15 bl_0_16 br_0_16 bl_0_17 br_0_17 bl_0_18 br_0_18 bl_0_19 br_0_19 bl_0_20 br_0_20 bl_0_21 br_0_21 bl_0_22 br_0_22 bl_0_23 br_0_23 bl_0_24 br_0_24 bl_0_25 br_0_25 bl_0_26 br_0_26 bl_0_27 br_0_27 bl_0_28 br_0_28 bl_0_29 br_0_29 bl_0_30 br_0_30 bl_0_31 br_0_31 wl_0_0 wl_0_1 wl_0_2 wl_0_3 wl_0_4 wl_0_5 wl_0_6 wl_0_7 wl_0_8 wl_0_9 wl_0_10 wl_0_11 wl_0_12 wl_0_13 wl_0_14 wl_0_15 wl_0_16 wl_0_17 wl_0_18 wl_0_19 wl_0_20 wl_0_21 wl_0_22 wl_0_23 wl_0_24 wl_0_25 wl_0_26 wl_0_27 wl_0_28 wl_0_29 wl_0_30 wl_0_31 vdd gnd
*.PININFO bl_0_0:B br_0_0:B bl_0_1:B br_0_1:B bl_0_2:B br_0_2:B bl_0_3:B br_0_3:B bl_0_4:B br_0_4:B bl_0_5:B br_0_5:B bl_0_6:B br_0_6:B bl_0_7:B br_0_7:B bl_0_8:B br_0_8:B bl_0_9:B br_0_9:B bl_0_10:B br_0_10:B bl_0_11:B br_0_11:B bl_0_12:B br_0_12:B bl_0_13:B br_0_13:B bl_0_14:B br_0_14:B bl_0_15:B br_0_15:B bl_0_16:B br_0_16:B bl_0_17:B br_0_17:B bl_0_18:B br_0_18:B bl_0_19:B br_0_19:B bl_0_20:B br_0_20:B bl_0_21:B br_0_21:B bl_0_22:B br_0_22:B bl_0_23:B br_0_23:B bl_0_24:B br_0_24:B bl_0_25:B br_0_25:B bl_0_26:B br_0_26:B bl_0_27:B br_0_27:B bl_0_28:B br_0_28:B bl_0_29:B br_0_29:B bl_0_30:B br_0_30:B bl_0_31:B br_0_31:B wl_0_0:I wl_0_1:I wl_0_2:I wl_0_3:I wl_0_4:I wl_0_5:I wl_0_6:I wl_0_7:I wl_0_8:I wl_0_9:I wl_0_10:I wl_0_11:I wl_0_12:I wl_0_13:I wl_0_14:I wl_0_15:I wl_0_16:I wl_0_17:I wl_0_18:I wl_0_19:I wl_0_20:I wl_0_21:I wl_0_22:I wl_0_23:I wl_0_24:I wl_0_25:I wl_0_26:I wl_0_27:I wl_0_28:I wl_0_29:I wl_0_30:I wl_0_31:I vdd:B gnd:B
* INOUT : bl_0_0 
* INOUT : br_0_0 
* INOUT : bl_0_1 
* INOUT : br_0_1 
* INOUT : bl_0_2 
* INOUT : br_0_2 
* INOUT : bl_0_3 
* INOUT : br_0_3 
* INOUT : bl_0_4 
* INOUT : br_0_4 
* INOUT : bl_0_5 
* INOUT : br_0_5 
* INOUT : bl_0_6 
* INOUT : br_0_6 
* INOUT : bl_0_7 
* INOUT : br_0_7 
* INOUT : bl_0_8 
* INOUT : br_0_8 
* INOUT : bl_0_9 
* INOUT : br_0_9 
* INOUT : bl_0_10 
* INOUT : br_0_10 
* INOUT : bl_0_11 
* INOUT : br_0_11 
* INOUT : bl_0_12 
* INOUT : br_0_12 
* INOUT : bl_0_13 
* INOUT : br_0_13 
* INOUT : bl_0_14 
* INOUT : br_0_14 
* INOUT : bl_0_15 
* INOUT : br_0_15 
* INOUT : bl_0_16 
* INOUT : br_0_16 
* INOUT : bl_0_17 
* INOUT : br_0_17 
* INOUT : bl_0_18 
* INOUT : br_0_18 
* INOUT : bl_0_19 
* INOUT : br_0_19 
* INOUT : bl_0_20 
* INOUT : br_0_20 
* INOUT : bl_0_21 
* INOUT : br_0_21 
* INOUT : bl_0_22 
* INOUT : br_0_22 
* INOUT : bl_0_23 
* INOUT : br_0_23 
* INOUT : bl_0_24 
* INOUT : br_0_24 
* INOUT : bl_0_25 
* INOUT : br_0_25 
* INOUT : bl_0_26 
* INOUT : br_0_26 
* INOUT : bl_0_27 
* INOUT : br_0_27 
* INOUT : bl_0_28 
* INOUT : br_0_28 
* INOUT : bl_0_29 
* INOUT : br_0_29 
* INOUT : bl_0_30 
* INOUT : br_0_30 
* INOUT : bl_0_31 
* INOUT : br_0_31 
* INPUT : wl_0_0 
* INPUT : wl_0_1 
* INPUT : wl_0_2 
* INPUT : wl_0_3 
* INPUT : wl_0_4 
* INPUT : wl_0_5 
* INPUT : wl_0_6 
* INPUT : wl_0_7 
* INPUT : wl_0_8 
* INPUT : wl_0_9 
* INPUT : wl_0_10 
* INPUT : wl_0_11 
* INPUT : wl_0_12 
* INPUT : wl_0_13 
* INPUT : wl_0_14 
* INPUT : wl_0_15 
* INPUT : wl_0_16 
* INPUT : wl_0_17 
* INPUT : wl_0_18 
* INPUT : wl_0_19 
* INPUT : wl_0_20 
* INPUT : wl_0_21 
* INPUT : wl_0_22 
* INPUT : wl_0_23 
* INPUT : wl_0_24 
* INPUT : wl_0_25 
* INPUT : wl_0_26 
* INPUT : wl_0_27 
* INPUT : wl_0_28 
* INPUT : wl_0_29 
* INPUT : wl_0_30 
* INPUT : wl_0_31 
* POWER : vdd 
* GROUND: gnd 
* rows: 32 cols: 32
Xbit_r0_c0 bl_0_0 br_0_0 wl_0_0 vdd gnd cell_1rw
Xbit_r1_c0 bl_0_0 br_0_0 wl_0_1 vdd gnd cell_1rw
Xbit_r2_c0 bl_0_0 br_0_0 wl_0_2 vdd gnd cell_1rw
Xbit_r3_c0 bl_0_0 br_0_0 wl_0_3 vdd gnd cell_1rw
Xbit_r4_c0 bl_0_0 br_0_0 wl_0_4 vdd gnd cell_1rw
Xbit_r5_c0 bl_0_0 br_0_0 wl_0_5 vdd gnd cell_1rw
Xbit_r6_c0 bl_0_0 br_0_0 wl_0_6 vdd gnd cell_1rw
Xbit_r7_c0 bl_0_0 br_0_0 wl_0_7 vdd gnd cell_1rw
Xbit_r8_c0 bl_0_0 br_0_0 wl_0_8 vdd gnd cell_1rw
Xbit_r9_c0 bl_0_0 br_0_0 wl_0_9 vdd gnd cell_1rw
Xbit_r10_c0 bl_0_0 br_0_0 wl_0_10 vdd gnd cell_1rw
Xbit_r11_c0 bl_0_0 br_0_0 wl_0_11 vdd gnd cell_1rw
Xbit_r12_c0 bl_0_0 br_0_0 wl_0_12 vdd gnd cell_1rw
Xbit_r13_c0 bl_0_0 br_0_0 wl_0_13 vdd gnd cell_1rw
Xbit_r14_c0 bl_0_0 br_0_0 wl_0_14 vdd gnd cell_1rw
Xbit_r15_c0 bl_0_0 br_0_0 wl_0_15 vdd gnd cell_1rw
Xbit_r16_c0 bl_0_0 br_0_0 wl_0_16 vdd gnd cell_1rw
Xbit_r17_c0 bl_0_0 br_0_0 wl_0_17 vdd gnd cell_1rw
Xbit_r18_c0 bl_0_0 br_0_0 wl_0_18 vdd gnd cell_1rw
Xbit_r19_c0 bl_0_0 br_0_0 wl_0_19 vdd gnd cell_1rw
Xbit_r20_c0 bl_0_0 br_0_0 wl_0_20 vdd gnd cell_1rw
Xbit_r21_c0 bl_0_0 br_0_0 wl_0_21 vdd gnd cell_1rw
Xbit_r22_c0 bl_0_0 br_0_0 wl_0_22 vdd gnd cell_1rw
Xbit_r23_c0 bl_0_0 br_0_0 wl_0_23 vdd gnd cell_1rw
Xbit_r24_c0 bl_0_0 br_0_0 wl_0_24 vdd gnd cell_1rw
Xbit_r25_c0 bl_0_0 br_0_0 wl_0_25 vdd gnd cell_1rw
Xbit_r26_c0 bl_0_0 br_0_0 wl_0_26 vdd gnd cell_1rw
Xbit_r27_c0 bl_0_0 br_0_0 wl_0_27 vdd gnd cell_1rw
Xbit_r28_c0 bl_0_0 br_0_0 wl_0_28 vdd gnd cell_1rw
Xbit_r29_c0 bl_0_0 br_0_0 wl_0_29 vdd gnd cell_1rw
Xbit_r30_c0 bl_0_0 br_0_0 wl_0_30 vdd gnd cell_1rw
Xbit_r31_c0 bl_0_0 br_0_0 wl_0_31 vdd gnd cell_1rw
Xbit_r0_c1 bl_0_1 br_0_1 wl_0_0 vdd gnd cell_1rw
Xbit_r1_c1 bl_0_1 br_0_1 wl_0_1 vdd gnd cell_1rw
Xbit_r2_c1 bl_0_1 br_0_1 wl_0_2 vdd gnd cell_1rw
Xbit_r3_c1 bl_0_1 br_0_1 wl_0_3 vdd gnd cell_1rw
Xbit_r4_c1 bl_0_1 br_0_1 wl_0_4 vdd gnd cell_1rw
Xbit_r5_c1 bl_0_1 br_0_1 wl_0_5 vdd gnd cell_1rw
Xbit_r6_c1 bl_0_1 br_0_1 wl_0_6 vdd gnd cell_1rw
Xbit_r7_c1 bl_0_1 br_0_1 wl_0_7 vdd gnd cell_1rw
Xbit_r8_c1 bl_0_1 br_0_1 wl_0_8 vdd gnd cell_1rw
Xbit_r9_c1 bl_0_1 br_0_1 wl_0_9 vdd gnd cell_1rw
Xbit_r10_c1 bl_0_1 br_0_1 wl_0_10 vdd gnd cell_1rw
Xbit_r11_c1 bl_0_1 br_0_1 wl_0_11 vdd gnd cell_1rw
Xbit_r12_c1 bl_0_1 br_0_1 wl_0_12 vdd gnd cell_1rw
Xbit_r13_c1 bl_0_1 br_0_1 wl_0_13 vdd gnd cell_1rw
Xbit_r14_c1 bl_0_1 br_0_1 wl_0_14 vdd gnd cell_1rw
Xbit_r15_c1 bl_0_1 br_0_1 wl_0_15 vdd gnd cell_1rw
Xbit_r16_c1 bl_0_1 br_0_1 wl_0_16 vdd gnd cell_1rw
Xbit_r17_c1 bl_0_1 br_0_1 wl_0_17 vdd gnd cell_1rw
Xbit_r18_c1 bl_0_1 br_0_1 wl_0_18 vdd gnd cell_1rw
Xbit_r19_c1 bl_0_1 br_0_1 wl_0_19 vdd gnd cell_1rw
Xbit_r20_c1 bl_0_1 br_0_1 wl_0_20 vdd gnd cell_1rw
Xbit_r21_c1 bl_0_1 br_0_1 wl_0_21 vdd gnd cell_1rw
Xbit_r22_c1 bl_0_1 br_0_1 wl_0_22 vdd gnd cell_1rw
Xbit_r23_c1 bl_0_1 br_0_1 wl_0_23 vdd gnd cell_1rw
Xbit_r24_c1 bl_0_1 br_0_1 wl_0_24 vdd gnd cell_1rw
Xbit_r25_c1 bl_0_1 br_0_1 wl_0_25 vdd gnd cell_1rw
Xbit_r26_c1 bl_0_1 br_0_1 wl_0_26 vdd gnd cell_1rw
Xbit_r27_c1 bl_0_1 br_0_1 wl_0_27 vdd gnd cell_1rw
Xbit_r28_c1 bl_0_1 br_0_1 wl_0_28 vdd gnd cell_1rw
Xbit_r29_c1 bl_0_1 br_0_1 wl_0_29 vdd gnd cell_1rw
Xbit_r30_c1 bl_0_1 br_0_1 wl_0_30 vdd gnd cell_1rw
Xbit_r31_c1 bl_0_1 br_0_1 wl_0_31 vdd gnd cell_1rw
Xbit_r0_c2 bl_0_2 br_0_2 wl_0_0 vdd gnd cell_1rw
Xbit_r1_c2 bl_0_2 br_0_2 wl_0_1 vdd gnd cell_1rw
Xbit_r2_c2 bl_0_2 br_0_2 wl_0_2 vdd gnd cell_1rw
Xbit_r3_c2 bl_0_2 br_0_2 wl_0_3 vdd gnd cell_1rw
Xbit_r4_c2 bl_0_2 br_0_2 wl_0_4 vdd gnd cell_1rw
Xbit_r5_c2 bl_0_2 br_0_2 wl_0_5 vdd gnd cell_1rw
Xbit_r6_c2 bl_0_2 br_0_2 wl_0_6 vdd gnd cell_1rw
Xbit_r7_c2 bl_0_2 br_0_2 wl_0_7 vdd gnd cell_1rw
Xbit_r8_c2 bl_0_2 br_0_2 wl_0_8 vdd gnd cell_1rw
Xbit_r9_c2 bl_0_2 br_0_2 wl_0_9 vdd gnd cell_1rw
Xbit_r10_c2 bl_0_2 br_0_2 wl_0_10 vdd gnd cell_1rw
Xbit_r11_c2 bl_0_2 br_0_2 wl_0_11 vdd gnd cell_1rw
Xbit_r12_c2 bl_0_2 br_0_2 wl_0_12 vdd gnd cell_1rw
Xbit_r13_c2 bl_0_2 br_0_2 wl_0_13 vdd gnd cell_1rw
Xbit_r14_c2 bl_0_2 br_0_2 wl_0_14 vdd gnd cell_1rw
Xbit_r15_c2 bl_0_2 br_0_2 wl_0_15 vdd gnd cell_1rw
Xbit_r16_c2 bl_0_2 br_0_2 wl_0_16 vdd gnd cell_1rw
Xbit_r17_c2 bl_0_2 br_0_2 wl_0_17 vdd gnd cell_1rw
Xbit_r18_c2 bl_0_2 br_0_2 wl_0_18 vdd gnd cell_1rw
Xbit_r19_c2 bl_0_2 br_0_2 wl_0_19 vdd gnd cell_1rw